18
3610.2268    
C    0.395820    1.090973    0.356868
C    -0.598366    -0.055550    0.172395
H    -0.112889    1.875566    0.916692
C    -2.877088    -0.603411    -0.121304
H    -3.816612    -0.060563    -0.122207
H    -2.705501    -1.080375    -1.084697
H    -2.869941    -1.361113    0.659802
C    0.791692    1.620906    -1.026414
H    -0.082298    1.954122    -1.586985
H    1.471798    2.461494    -0.899112
H    1.302973    0.842870    -1.594189
O    -1.859751    0.386010    0.135004
O    -0.303428    -1.223337    0.028806
O    1.504442    0.703724    1.129328
H    2.013732    0.025749    0.650030
O    2.426764    -1.499139    -0.410871
H    2.903710    -2.226396    -0.002100
H    1.478463    -1.686929    -0.284642
